 CRYSTAL
 PRIMVEC
    4.593679702      0.000000000      0.000000000
    0.000000000      4.593679702      0.000000000
    0.000000000      0.000000000      2.957781924
 PRIMCOORD
  6 1
   22    0.000000000      0.000000000      0.000000000
   22    2.296839851      2.296839851      1.478890962
    8    1.400290362      1.400290362      0.000000000
    8    3.697130213      0.896549489      1.478890962
    8   -1.400290362     -1.400290362      0.000000000
    8   -3.697130213     -0.896549489      1.478890962
