 CRYSTAL
 PRIMVEC
    0.000000000      1.772742950      1.772742950
    1.772742950      0.000000000      1.772742950
    1.772742950      1.772742950      0.000000000
 CONVVEC
       3.545486       0.000000       0.000000
       0.000000       3.545486       0.000000
       0.000000       0.000000       3.545486
 PRIMCOORD
  1 1
   28    0.000000000      0.000000000      0.000000000
