 CRYSTAL
 PRIMVEC
    0.000000000      2.725261550      2.725261550
    2.725261550      0.000000000      2.725261550
    2.725261550      2.725261550      0.000000000
 CONVVEC
       5.450523       0.000000       0.000000
       0.000000       5.450523       0.000000
       0.000000       0.000000       5.450523
 PRIMCOORD
  2 1
   14    0.000000000      0.000000000      0.000000000
   14    1.362630775      1.362630775      1.362630775
