 CRYSTAL
 PRIMVEC
    5.291770000      0.000000000      0.000000000
    0.000000000      5.291770000      0.000000000
    0.000000000      0.000000000      5.291770000
 PRIMCOORD
  5 1
    6    0.000000000      0.425013000      0.000000000
    8   -1.041302000     -0.439515000      0.000000000
    8    1.169561000      0.105802000      0.000000000
    1   -0.376991000      1.458281000      0.000000000
    1   -0.649085000     -1.338653000      0.000000000
