 CRYSTAL
 PRIMVEC
    0.000000000      1.984413750      1.984413750
    1.984413750      0.000000000      1.984413750
    1.984413750      1.984413750      0.000000000
 CONVVEC
       3.968828       0.000000       0.000000
       0.000000       3.968828       0.000000
       0.000000       0.000000       3.968828
 PRIMCOORD
  1 1
   13    0.000000000      0.000000000      0.000000000
