 CRYSTAL
 PRIMVEC
    7.937655000      0.000000000      0.000000000
    0.000000000      7.937655000      0.000000000
    0.000000000      0.000000000      7.937655000
 PRIMCOORD
  3 1
    1    0.000000000      0.000000000      0.000000000
    1    0.753390736      0.000000000      0.000000000
    1    2.993360069      0.000000000      0.000000000
