 CRYSTAL
 PRIMVEC
    4.050003252      0.000000000      0.000000000
    0.000000000      4.049791581      0.000000000
    0.000000000      0.000000000     16.200013007
 PRIMCOORD
  7 1
   17    0.000000000      0.000000000      1.957954900
   13    0.000000000      2.025001626      0.000000000
   13    2.025001626      0.000000000      0.000000000
   13    0.000000000      0.000000000     -2.025001626
   13    2.025001626      2.025001626     -2.025001626
   13    0.000000000      2.025001626     -4.050003252
   13    2.025001626      0.000000000     -4.050003252
